Version 4
SHEET 1 880 680
WIRE 112 -592 -80 -592
WIRE 288 -592 112 -592
WIRE 416 -592 288 -592
WIRE 592 -592 416 -592
WIRE 112 -576 112 -592
WIRE 416 -576 416 -592
WIRE 16 -512 16 -688
WIRE 112 -480 112 -496
WIRE 288 -448 288 -592
WIRE 592 -416 320 -416
WIRE 16 -400 16 -448
WIRE 112 -400 112 -416
WIRE 112 -400 16 -400
WIRE 240 -400 112 -400
WIRE 336 -384 320 -384
WIRE 288 -336 288 -352
WIRE 304 -336 304 -352
WIRE 304 -336 288 -336
WIRE 304 -320 304 -336
WIRE -176 -144 -240 -144
WIRE -80 -144 -80 -592
WIRE -80 -144 -176 -144
WIRE 176 -144 -80 -144
WIRE 304 -144 176 -144
WIRE 432 -144 304 -144
WIRE 304 -112 304 -144
WIRE 432 -112 432 -144
WIRE 208 0 -112 0
WIRE -80 96 -144 96
WIRE 176 96 176 -144
WIRE 176 96 144 96
WIRE 432 96 432 -48
WIRE 432 96 368 96
WIRE -144 112 -144 96
WIRE -112 160 -112 0
WIRE -80 160 -112 160
WIRE 208 160 208 0
WIRE 208 160 144 160
WIRE 304 160 304 144
WIRE 304 160 208 160
WIRE 480 160 304 160
WIRE -240 192 -240 -144
WIRE -176 192 -240 192
WIRE -80 224 -112 224
WIRE 208 224 208 160
WIRE 208 224 144 224
WIRE 432 240 432 96
WIRE -240 256 -240 192
WIRE 304 256 304 160
WIRE -176 288 -176 192
WIRE -80 288 -176 288
WIRE 176 288 144 288
WIRE 176 304 176 288
WIRE -240 368 -240 336
FLAG -240 368 0
FLAG -144 112 0
FLAG 176 368 0
FLAG 304 320 0
FLAG -176 -80 0
FLAG 432 320 0
FLAG 480 160 saw
IOPIN 480 160 Out
FLAG 304 -320 0
FLAG 336 -384 saw
IOPIN 336 -384 In
FLAG 416 -512 0
SYMBOL Misc\\NE555 32 192 R0
SYMATTR InstName U1
SYMBOL voltage -240 240 R0
WINDOW 123 0 0 Left 0
WINDOW 39 0 0 Left 0
SYMATTR InstName V2
SYMATTR Value 15
SYMBOL res 288 -48 R0
SYMATTR InstName R6
SYMATTR Value 560
SYMBOL pnp 368 144 R180
WINDOW 0 48 35 Left 2
WINDOW 3 53 65 Left 2
SYMATTR InstName Q5
SYMATTR Value 2N2907
SYMBOL zener 448 -48 R180
WINDOW 0 24 64 Left 2
WINDOW 3 24 0 Left 2
SYMATTR InstName D2
SYMATTR Value 1N750
SYMBOL cap 160 304 R0
SYMATTR InstName C3
SYMATTR Value 10n
SYMBOL res 416 224 R0
SYMATTR InstName R5
SYMATTR Value 2.7k
SYMBOL cap 288 256 R0
SYMATTR InstName C4
SYMATTR Value 3.3n
SYMBOL cap -192 -144 R0
SYMATTR InstName C5
SYMATTR Value 1µ
SYMBOL res 288 -128 R0
WINDOW 0 -86 24 Left 2
WINDOW 3 -46 56 Left 2
SYMATTR InstName Freq_adj
SYMATTR Value 2440
SYMBOL Comparators\\LT1011 288 -400 M0
SYMATTR InstName U2
SYMBOL res 96 -592 R0
SYMATTR InstName R1
SYMBOL Misc\\jumper 80 -480 R90
SYMATTR InstName X2
SYMBOL cap 400 -576 R0
SYMATTR InstName C1
TEXT -472 -240 Left 2 ;Sawtooth generator from Fig 14.1
TEXT -248 -184 Left 2 !.tran .07m
